105
# t     = 0 ps, T_ion = 299.714 K, P     = 4.14171 GPa, V     = 779.726 A^3 # coordinates in angstrom unit:
  B 0.0320194 -1.19201 12.8696  crystal_vector 1 5.37776 -3.10486 7.78298 crystal_vector 2 0 6.20974 7.78298 crystal_vector 3 -5.37776 -3.10486 7.78298
  B 1.04857 0.551013 12.9486  bbox_xyz  0. 5.37776 0. 6.20974 0. 7.78298
  B -1.00565 0.568919 12.9622 
  B -0.0427749 1.20078 10.4813 
  B 0.978789 -0.565516 10.3813 
  B -1.05045 -0.549756 10.3957 
  B 1.9181 -0.0638794 4.10093 
  B -0.846775 1.626 4.11695 
  B -0.94681 -1.62653 4.17266 
  B 1.90395 0.0731892 19.2319 
  B -0.918121 -1.67371 19.1903 
  B -1.00656 1.56799 19.1923 
  B -1.91574 0.0706341 19.2553 
  B 0.84079 -1.65176 19.2294 
  B 0.947658 1.62676 19.1825 
  B -1.89299 -0.0673294 4.12732 
  B 0.915246 1.66074 4.16478 
  B 1.0139 -1.5627 4.15995 
  B -2.05461 -3.33618 10.6965 
  B 3.90042 -0.163292 10.8677 
  B -1.85118 3.49168 10.8265 
  B -2.07266 3.35772 12.5613 
  B 3.87804 0.136439 12.5954 
  B -1.79372 -3.48257 12.4924 
  B 2.06218 3.3398 12.6478 
  B -3.89762 0.157856 12.4861 
  B 1.84807 -3.49644 12.518 
  B 2.0627 -3.35269 10.7909 
  B -3.88106 -0.11963 10.756 
  B 1.80325 3.47522 10.8624 
  B 2.60855 -0.443657 9.80252 
  B -0.963769 2.50756 9.80333 
  B -1.72192 -2.01692 9.78607 
  B 2.57303 0.433017 13.565 
  B -0.894228 -2.50292 13.5577 
  B -1.73576 2.05921 13.558 
  B -2.60091 0.43498 13.5578 
  B 0.958439 -2.50618 13.5486 
  B 1.71795 2.02879 13.5645 
  B -2.57522 -0.425054 9.77434 
  B 0.900781 2.49938 9.79671 
  B 1.73684 -2.06733 9.79861 
  B 2.53911 0.161395 8.09525 
  B -1.43774 2.18405 8.12718 
  B -1.19683 -2.33077 8.05887 
  B 2.57403 -0.18436 15.2459 
  B -1.44879 -2.1255 15.2337 
  B -1.2531 2.29731 15.2687 
  B -2.54264 -0.162046 15.2537 
  B 1.43735 -2.17099 15.2297 
  B 1.18283 2.33066 15.2901 
  B -2.56966 0.193777 8.09984 
  B 1.45399 2.12502 8.12188 
  B 1.24431 -2.30259 8.08936 
  B 0.0336317 -0.974178 22.0735 
  B 0.862786 0.502434 22.0239 
  B -0.873858 0.533839 22.097 
  B -0.0268167 0.980362 1.27459 
  B 0.87232 -0.543232 1.24475 
  B -0.8599 -0.517979 1.30352 
  B -0.0203497 4.68246 8.06709 
  B -4.0097 -2.34089 8.06184 
  B 4.01181 -2.34627 8.03552 
  B 0.02689 -4.67762 15.2676 
  B -3.99566 2.36181 15.308 
  B 4.01484 2.34378 15.2853 
  B -0.0264286 -2.01757 20.7318 
  B 1.79254 1.03212 20.6474 
  B -1.72869 0.967411 20.7632 
  B 0.0328527 2.01185 2.61453 
  B 1.72458 -0.96296 2.5846 
  B -1.79849 -1.04358 2.70008 
  B 0.0140795 3.06763 8.41547 
  B -2.64393 -1.49571 8.37587 
  B 2.66896 -1.49422 8.48206 
  B -0.00626185 -3.05938 14.931 
  B -2.6693 1.48702 14.8667 
  B 2.64586 1.51084 14.9603 
  B -0.0107681 -2.38735 17.9472 
  B 1.9862 1.1512 17.8404 
  B -2.073 1.19947 17.8848 
  B 0.0134328 2.38466 5.40423 
  B 2.07661 -1.20251 5.4716 
  B -1.98667 -1.14562 5.49693 
  B -0.0255208 -1.89516 16.3065 
  B 1.60815 0.978155 16.3117 
  B -1.61065 0.970774 16.3137 
  B 0.0362065 1.89074 7.04486 
  B 1.62043 -0.977656 7.03525 
  B -1.60568 -0.984486 7.02609 
  B -0.00939833 -1.10861 7.71915 
  B 0.839374 0.492222 7.62728 
  B -0.961713 0.53137 7.7283 
  B 0.00284291 1.10565 15.6161 
  B 0.963234 -0.543312 15.6303 
  B -0.837 -0.494888 15.7208 
  B -0.0180792 -1.67505 9.30117 
  B 1.40793 0.821294 9.30454 
  B -1.4256 0.86118 9.38643 
  B 0.0106674 1.67738 14.0555 
  B 1.42485 -0.850219 13.9631 
  B -1.40968 -0.822789 14.0446 
  B -0.0578119 -0.0236192 8.99794 
  B 0.0511589 0.0271366 14.3461 
  B -0.00917257 0.00144973 11.6758 
